examples/test_perturbation_outputs/pert_min_cost/pglib_opf_case162_ieee_dtc.m
%% MATPOWER Case Format : Version 2
function mpc = pglib_opf_case162_ieee_dtc
mpc.version = '2';

%%-----  Power Flow Data  -----%%
%% system MVA base
mpc.baseMVA = 100.0;
%% bus data
%    bus_i    type    Pd    Qd    Gs    Bs    area    Vm    Va    baseKV    zone    Vmax    Vmin
mpc.bus = [
	1	1	0.0	0.0	0.0	-100.0	1	1.0	0.0	345.0	9	1.06	0.94				
	2	1	0.0	0.0	0.0	0.0	1	1.0	0.0	345.0	9	1.06	0.94				
	3	1	370.0	96.9	0.0	0.0	1	1.0	0.0	161.0	12	1.06	0.94				
	4	1	0.0	0.0	0.0	0.0	1	1.0	0.0	345.0	3	1.06	0.94				
	5	1	0.0	0.0	0.0	-50.0	1	1.0	0.0	345.0	8	1.06	0.94				
	6	2	0.0	0.0	0.0	0.0	1	1.0	0.0	22.0	9	1.06	0.94				
	7	1	0.0	0.0	0.0	0.0	1	1.0	0.0	345.0	9	1.06	0.94				
	8	1	398.0	0.0	0.0	0.0	1	1.0	0.0	115.0	12	1.06	0.94				
	9	1	0.0	0.0	0.0	0.0	1	1.0	0.0	345.0	8	1.06	0.94				
	10	1	225.99999999999997	0.0	0.0	0.0	1	1.0	0.0	230.0	12	1.06	0.94				
	11	1	0.0	0.0	0.0	0.0	1	1.0	0.0	230.0	10	1.06	0.94				
	12	1	193.0	0.0	0.0	0.0	1	1.0	0.0	115.0	12	1.06	0.94				
	13	1	204.0	0.0	0.0	0.0	1	1.0	0.0	345.0	12	1.06	0.94				
	14	1	381.0	0.0	0.0	0.0	1	1.0	0.0	161.0	12	1.06	0.94				
	15	1	-80.0	0.0	0.0	0.0	1	1.0	0.0	230.0	12	1.06	0.94				
	16	1	-54.2	0.0	0.0	0.0	1	1.0	0.0	161.0	12	1.06	0.94				
	17	1	-116.5	0.0	0.0	0.0	1	1.0	0.0	161.0	12	1.06	0.94				
	18	1	34.4	11.67	0.0	0.0	1	1.0	0.0	161.0	6	1.06	0.94				
	19	1	64.4	0.0	0.0	0.0	1	1.0	0.0	161.0	12	1.06	0.94				
	20	1	37.9	12.5	0.0	0.0	1	1.0	0.0	69.0	10	1.06	0.94				
	21	1	-69.8	0.0	0.0	0.0	1	1.0	0.0	161.0	12	1.06	0.94				
	22	1	17.39	5.27	0.0	0.0	1	1.0	0.0	161.0	6	1.06	0.94				
	23	1	63.5	0.0	0.0	0.0	1	1.0	0.0	161.0	12	1.06	0.94				
	24	1	0.0	0.0	0.0	0.0	1	1.0	0.0	161.0	6	1.06	0.94				
	25	1	0.0	0.0	0.0	-50.0	1	1.0	0.0	345.0	6	1.06	0.94				
	26	1	0.0	0.0	0.0	-50.0	1	1.0	0.0	345.0	1	1.06	0.94				
	27	1	324.0	57.9	0.0	0.0	1	1.0	0.0	345.0	12	1.06	0.94				
	28	1	38.47	13.170000000000002	0.0	0.0	1	1.0	0.0	161.0	6	1.06	0.94				
	29	1	28.309999999999995	9.03	0.0	0.0	1	1.0	0.0	161.0	6	1.06	0.94				
	30	1	101.2	32.52	0.0	15.0	1	1.0	0.0	161.0	6	1.06	0.94				
	31	1	72.5	0.0	0.0	0.0	1	1.0	0.0	161.0	12	1.06	0.94				
	32	1	52.7	15.06	0.0	20.0	1	1.0	0.0	161.0	6	1.06	0.94				
	33	1	45.17	15.06	0.0	20.0	1	1.0	0.0	161.0	6	1.06	0.94				
	34	1	14.180000000000001	5.25	0.0	3.2	1	1.0	0.0	161.0	1	1.06	0.94				
	35	1	54.48	14.63	0.0	5.0	1	1.0	0.0	161.0	1	1.06	0.94				
	36	1	31.96	8.68	0.0	3.0	1	1.0	0.0	161.0	2	1.06	0.94				
	37	1	0.0	0.0	0.0	0.0	1	1.0	0.0	345.0	11	1.06	0.94				
	38	1	14.760000000000002	4.08	0.0	1.5	1	1.0	0.0	161.0	2	1.06	0.94				
	39	1	0.0	0.0	0.0	0.0	1	1.0	0.0	345.0	6	1.06	0.94				
	40	1	52.88	17.6	0.0	0.0	1	1.0	0.0	161.0	1	1.06	0.94				
	41	1	39.2	12.8	0.0	0.0	1	1.0	0.0	161.0	1	1.06	0.94				
	42	1	0.0	0.0	0.0	0.0	1	1.0	0.0	345.0	2	1.06	0.94				
	43	1	41.5	0.0	0.0	0.0	1	1.0	0.0	161.0	12	1.06	0.94				
	44	1	16.32	3.71	0.0	0.0	1	1.0	0.0	161.0	2	1.06	0.94				
	45	1	20.02	5.41	0.0	1.9	1	1.0	0.0	161.0	2	1.06	0.94				
	46	1	65.31	22.3	0.0	26.200000000000003	1	1.0	0.0	161.0	10	1.06	0.94				
	47	1	4.82	1.56	0.0	0.0	1	1.0	0.0	161.0	2	1.06	0.94				
	48	1	33.76	22.86	0.0	0.0	1	1.0	0.0	161.0	10	1.06	0.94				
	49	1	6.819999999999999	1.78	0.0	0.0	1	1.0	0.0	161.0	2	1.06	0.94				
	50	1	99.7	0.0	0.0	0.0	1	1.0	0.0	161.0	12	1.06	0.94				
	51	1	0.0	0.0	0.0	0.0	1	1.0	0.0	161.0	3	1.06	0.94				
	52	1	218.2	42.8	0.0	0.0	1	1.0	0.0	161.0	3	1.06	0.94				
	53	1	0.0	0.0	0.0	0.0	1	1.0	0.0	161.0	10	1.06	0.94				
	54	1	70.34	29.57	0.0	0.0	1	1.0	0.0	161.0	10	1.06	0.94				
	55	1	0.0	0.0	0.0	0.0	1	1.0	0.0	161.0	1	1.06	0.94				
	56	1	25.290000000000003	7.26	0.0	3.2	1	1.0	0.0	161.0	7	1.06	0.94				
	57	1	48.48	15.61	0.0	0.0	1	1.0	0.0	161.0	1	1.06	0.94				
	58	1	0.0	0.0	0.0	0.0	1	1.0	0.0	230.0	10	1.06	0.94				
	59	1	84.43	27.05	0.0	0.0	1	1.0	0.0	230.0	10	1.06	0.94				
	60	1	244.0	0.0	0.0	0.0	1	1.0	0.0	115.0	12	1.06	0.94				
	61	1	0.0	0.0	0.0	0.0	1	1.0	0.0	230.0	10	1.06	0.94				
	62	1	-865.6	0.0	0.0	0.0	1	1.0	0.0	230.0	12	1.06	0.94				
	63	1	59.099999999999994	0.0	0.0	0.0	1	1.0	0.0	230.0	12	1.06	0.94				
	64	1	0.0	0.0	0.0	0.0	1	1.0	0.0	345.0	10	1.06	0.94				
	65	1	-26.3	0.0	0.0	0.0	1	1.0	0.0	345.0	12	1.06	0.94				
	66	1	0.0	0.0	0.0	-50.0	1	1.0	0.0	345.0	10	1.06	0.94				
	67	1	22.54	7.03	0.0	6.0	1	1.0	0.0	161.0	7	1.06	0.94				
	68	1	40.42	12.68	0.0	12.0	1	1.0	0.0	161.0	7	1.06	0.94				
	69	1	0.0	0.0	0.0	0.0	1	1.0	0.0	161.0	1	1.06	0.94				
	70	1	0.0	0.0	0.0	0.0	1	1.0	0.0	161.0	1	1.06	0.94				
	71	1	29.87	11.93	0.0	12.0	1	1.0	0.0	161.0	1	1.06	0.94				
	72	1	426.99999999999994	0.0	0.0	0.0	1	1.0	0.0	161.0	12	1.06	0.94				
	73	2	0.0	0.0	0.0	0.0	1	1.0	0.0	20.0	1	1.06	0.94				
	74	1	0.0	0.0	0.0	0.0	1	1.0	0.0	345.0	5	1.06	0.94				
	75	1	0.0	0.0	0.0	-50.0	1	1.0	0.0	345.0	8	1.06	0.94				
	76	2	0.0	0.0	0.0	0.0	1	1.0	0.0	24.0	1	1.06	0.94				
	77	1	26.41	8.78	0.0	4.7	1	1.0	0.0	161.0	1	1.06	0.94				
	78	1	79.12	0.0	0.0	0.0	1	1.0	0.0	161.0	5	1.06	0.94				
	79	1	0.0	0.0	0.0	0.0	1	1.0	0.0	161.0	5	1.06	0.94				
	80	1	15.76	5.25	0.0	2.8	1	1.0	0.0	161.0	1	1.06	0.94				
	81	1	50.88	16.8	0.0	22.1	1	1.0	0.0	69.0	1	1.06	0.94				
	82	1	62.28	20.26	0.0	10.4	1	1.0	0.0	161.0	1	1.06	0.94				
	83	1	0.0	0.0	0.0	0.0	1	1.0	0.0	161.0	1	1.06	0.94				
	84	1	37.9	9.49	0.0	2.6	1	1.0	0.0	161.0	2	1.06	0.94				
	85	1	40.52	11.26	0.0	12.0	1	1.0	0.0	161.0	1	1.06	0.94				
	86	1	50.73	13.350000000000001	0.0	12.0	1	1.0	0.0	161.0	2	1.06	0.94				
	87	1	16.91	4.23	0.0	0.0	1	1.0	0.0	115.0	2	1.06	0.94				
	88	1	60.6	4.44	0.0	0.0	1	1.0	0.0	69.0	4	1.06	0.94				
	89	1	0.0	0.0	0.0	0.0	1	1.0	0.0	115.0	2	1.06	0.94				
	90	1	50.21	16.76	0.0	10.0	1	1.0	0.0	115.0	2	1.06	0.94				
	91	1	51.239999999999995	12.83	0.0	0.0	1	1.0	0.0	161.0	2	1.06	0.94				
	92	1	36.12	9.05	0.0	0.0	1	1.0	0.0	161.0	2	1.06	0.94				
	93	1	103.8	34.56	0.0	0.0	1	1.0	0.0	161.0	2	1.06	0.94				
	94	1	164.0	6.49	0.0	0.0	1	1.0	0.0	161.0	5	1.06	0.94				
	95	1	117.19999999999999	39.01	0.0	0.0	1	1.0	0.0	115.0	2	1.06	0.94				
	96	1	119.19999999999999	0.0	0.0	0.0	1	1.0	0.0	115.0	2	1.06	0.94				
	97	1	22.84	5.71	0.0	0.0	1	1.0	0.0	115.0	2	1.06	0.94				
	98	1	151.1	50.35000000000001	0.0	0.0	1	1.0	0.0	115.0	2	1.06	0.94				
	99	2	0.0	0.0	0.0	0.0	1	1.0	0.0	18.0	2	1.06	0.94				
	100	1	23.21	6.9	0.0	3.0	1	1.0	0.0	115.0	2	1.06	0.94				
	101	2	0.0	0.0	0.0	0.0	1	1.0	0.0	14.0	2	1.06	0.94				
	102	1	16.54	4.08	0.0	0.0	1	1.0	0.0	161.0	2	1.06	0.94				
	103	1	322.0	0.0	0.0	0.0	1	1.0	0.0	161.0	12	1.06	0.94				
	104	1	31.52	10.46	0.0	5.6	1	1.0	0.0	115.0	2	1.06	0.94				
	105	1	24.84	6.23	0.0	1.7000000000000002	1	1.0	0.0	115.0	2	1.06	0.94				
	106	1	0.0	0.0	0.0	0.0	1	1.0	0.0	161.0	4	1.06	0.94				
	107	1	35.41	5.41	0.0	0.0	1	1.0	0.0	161.0	4	1.06	0.94				
	108	3	0.0	0.0	0.0	0.0	1	1.0	0.0	22.0	2	1.06	0.94				
	109	1	0.0	0.0	0.0	0.0	1	1.0	0.0	345.0	5	1.06	0.94				
	110	1	0.0	0.0	0.0	0.0	1	1.0	0.0	161.0	3	1.06	0.94				
	111	1	65.41	16.72	0.0	0.0	1	1.0	0.0	161.0	3	1.06	0.94				
	112	1	0.0	0.0	0.0	-50.0	1	1.0	0.0	345.0	3	1.06	0.94				
	113	1	32.7	0.0	0.0	0.0	1	1.0	0.0	161.0	12	1.06	0.94				
	114	2	0.0	0.0	0.0	0.0	1	1.0	0.0	14.0	3	1.06	0.94				
	115	1	17.32	3.34	0.0	0.0	1	1.0	0.0	161.0	3	1.06	0.94				
	116	1	56.08	11.2	0.0	0.0	1	1.0	0.0	161.0	3	1.06	0.94				
	117	1	101.9	20.06	0.0	0.0	1	1.0	0.0	161.0	3	1.06	0.94				
	118	2	0.0	0.0	0.0	0.0	1	1.0	0.0	14.0	3	1.06	0.94				
	119	1	0.0	0.0	0.0	0.0	1	1.0	0.0	345.0	3	1.06	0.94				
	120	1	0.0	0.0	0.0	0.0	1	1.0	0.0	345.0	8	1.06	0.94				
	121	2	0.0	0.0	0.0	0.0	1	1.0	0.0	24.0	3	1.06	0.94				
	122	1	47.28	9.36	0.0	0.0	1	1.0	0.0	161.0	3	1.06	0.94				
	123	1	165.0	0.0	0.0	0.0	1	1.0	0.0	161.0	12	1.06	0.94				
	124	1	-571.0	90.9	0.0	0.0	1	1.0	0.0	345.0	12	1.06	0.94				
	125	2	2000.0	0.0	0.0	0.0	1	1.0	0.0	345.0	12	1.06	0.94				
	126	1	-467.0	0.0	0.0	0.0	1	1.0	0.0	345.0	12	1.06	0.94				
	127	1	-52.6	0.0	0.0	0.0	1	1.0	0.0	345.0	12	1.06	0.94				
	128	1	0.0	0.0	0.0	0.0	1	1.0	0.0	345.0	8	1.06	0.94				
	129	1	0.0	0.0	0.0	0.0	1	1.0	0.0	345.0	8	1.06	0.94				
	130	2	0.0	0.0	0.0	0.0	1	1.0	0.0	22.0	8	1.06	0.94				
	131	2	0.0	0.0	0.0	0.0	1	1.0	0.0	18.0	8	1.06	0.94				
	132	1	159.0	0.0	0.0	0.0	1	1.0	0.0	161.0	12	1.06	0.94				
	133	1	30.099999999999998	6.02	0.0	0.0	1	1.0	0.0	69.0	3	1.06	0.94				
	134	1	17.46	3.34	0.0	0.0	1	1.0	0.0	161.0	3	1.06	0.94				
	135	1	20.06	4.01	0.0	0.0	1	1.0	0.0	69.0	3	1.06	0.94				
	136	1	20.06	4.01	0.0	0.0	1	1.0	0.0	69.0	3	1.06	0.94				
	137	1	20.06	4.01	0.0	0.0	1	1.0	0.0	69.0	3	1.06	0.94				
	138	1	0.0	0.0	0.0	0.0	1	1.0	0.0	69.0	3	1.06	0.94				
	139	1	10.1	2.01	0.0	0.0	1	1.0	0.0	69.0	3	1.06	0.94				
	140	1	13.58	2.68	0.0	0.0	1	1.0	0.0	69.0	3	1.06	0.94				
	141	1	0.0	0.0	0.0	0.0	1	1.0	0.0	161.0	3	1.06	0.94				
	142	1	27.089999999999996	5.35	0.0	0.0	1	1.0	0.0	69.0	3	1.06	0.94				
	143	1	21.07	4.01	0.0	0.0	1	1.0	0.0	69.0	3	1.06	0.94				
	144	1	12.37	2.01	0.0	0.0	1	1.0	0.0	69.0	3	1.06	0.94				
	145	1	10.83	2.21	0.0	0.0	1	1.0	0.0	69.0	3	1.06	0.94				
	146	1	21.33	4.01	0.0	0.0	1	1.0	0.0	69.0	3	1.06	0.94				
	147	1	216.4	42.8	0.0	0.0	1	1.0	0.0	161.0	3	1.06	0.94				
	148	1	120.0	24.0	0.0	0.0	1	1.0	0.0	69.0	3	1.06	0.94				
	149	1	0.0	0.0	0.0	0.0	1	1.0	0.0	161.0	1	1.06	0.94				
	150	1	4.8	1.6	0.0	0.0	1	1.0	0.0	161.0	1	1.06	0.94				
	151	1	24.0	8.0	0.0	0.0	1	1.0	0.0	161.0	1	1.06	0.94				
	152	1	6.0	0.0	0.0	0.0	1	1.0	0.0	161.0	12	1.06	0.94				
	153	1	4.0	1.6	0.0	0.0	1	1.0	0.0	69.0	1	1.06	0.94				
	154	1	28.000000000000004	9.6	0.0	6.0	1	1.0	0.0	69.0	1	1.06	0.94				
	155	1	12.0	4.0	0.0	0.0	1	1.0	0.0	69.0	1	1.06	0.94				
	156	1	8.0	2.4	0.0	0.0	1	1.0	0.0	69.0	1	1.06	0.94				
	157	1	32.0	10.4	0.0	0.0	1	1.0	0.0	69.0	1	1.06	0.94				
	158	1	16.0	5.6	0.0	3.0	1	1.0	0.0	69.0	1	1.06	0.94				
	159	1	8.0	2.4	0.0	0.0	1	1.0	0.0	69.0	1	1.06	0.94				
	160	1	14.400000000000002	4.8	0.0	3.0	1	1.0	0.0	69.0	1	1.06	0.94				
	161	1	32.0	10.4	0.0	0.0	1	1.0	0.0	161.0	1	1.06	0.94				
	162	1	20.0	6.4	0.0	0.0	1	1.0	0.0	161.0	1	1.06	0.94				
];

%% generator data
%    bus    Pg    Qg    Qmax    Qmin    Vg    mBase    status    Pmax    Pmin    Pc1    Pc2    Qc1min    Qc1max    Qc2min    Qc2max    ramp_agc    ramp_10    ramp_30    ramp_q    apf
mpc.gen = [
	6	573.5	100.0	400.0	-200.0	1.0	100.0	1	1147.0	0.0															
	73	225.5	77.0	225.99999999999997	-72.0	1.0	100.0	1	451.0	0.0															
	76	563.5	197.0	564.0	-170.0	1.0	100.0	1	1127.0	0.0															
	99	183.0	7.5	75.6	-60.6	1.0	100.0	1	366.0	0.0															
	101	55.00000000000001	7.1	38.6	-24.4	1.0	100.0	1	110.00000000000001	0.0															
	108	559.5	0.0	560.0	-560.0	1.0	100.0	1	1119.0	0.0															
	114	154.0	4.0	33.0	-25.0	1.0	100.0	1	308.0	0.0															
	118	227.5	28.000000000000004	100.0	-44.0	1.0	100.0	1	455.0	0.0															
	121	350.0	65.0	250.0	-120.0	1.0	100.0	1	700.0	0.0															
	125	1263.0	82.0	1263.0	-1099.0	1.0	100.0	1	2526.0	0.0															
	130	796.5	72.0	288.0	-144.0	1.0	100.0	1	1593.0	0.0															
	131	565.0	27.500000000000004	320.0	-265.0	1.0	100.0	1	1130.0	0.0															
];

%% branch data
%    f_bus    t_bus    r    x    b    rateA    rateB    rateC    ratio    angle    status    angmin    angmax
mpc.branch = [
	1	2	0.003484580748835595	0.03195848824029026	0.7097878047547619	613.0	613.0	613.0	0	0	1	-29.999999999999996	29.999999999999996								
	1	3	0.003411795801544362	0.032713201663963715	0.7234418955862504	894.9999999999999	894.9999999999999	894.9999999999999	1.0	0.0	1	-29.999999999999996	29.999999999999996								
	1	4	0.006253745196152322	0.06068128920726912	0.9258162410313509	470.0	470.0	470.0	0	0	1	-29.999999999999996	29.999999999999996								
	1	5	0.001112056283240713	0.012030427582069786	0.17431208574173163	663.0	663.0	663.0	0	0	1	-29.999999999999996	29.999999999999996								
	1	6	1.1624805396514572e-5	0.013284970229440838	0.03877195400370417	900.0	2206.0	2206.0	1.0519	0.0	1	-29.999999999999996	29.999999999999996								
	2	7	0.0013991850713011723	0.012492724031442904	0.24353102633369156	605.0	605.0	605.0	0	0	1	-29.999999999999996	29.999999999999996								
	2	13	0.00466702857067377	0.04230755207665156	0.7548874612551062	610.0	610.0	610.0	0	0	1	-29.999999999999996	29.999999999999996								
	3	14	0.3370582574157332	1.768066716794217	0.0022027299766455436	28.999999999999996	28.999999999999996	28.999999999999996	0	0	1	-29.999999999999996	29.999999999999996								
	3	50	0.03847228346661928	0.16803470559597403	0.0051398574261391165	169.0	169.0	169.0	0	0	1	-29.999999999999996	29.999999999999996								
	3	103	0.21796594533676897	1.8060163806064045	0.12467771891511449	17.0	17.0	17.0	0	0	1	-29.999999999999996	29.999999999999996								
	3	123	0.2630166040137721	1.537877692151731	0.002201342101837339	18.0	18.0	18.0	0	0	1	-29.999999999999996	29.999999999999996								
	3	124	0.014738818335840837	0.4728101356452915	0.16152780195628558	46.0	46.0	46.0	1.0	0.0	1	-29.999999999999996	29.999999999999996								
	3	125	0.008172132544374105	0.11080947591748692	0.00220224306714296	257.0	257.0	257.0	1.0	0.0	1	-29.999999999999996	29.999999999999996								
	4	112	0.005930457352142132	0.05709360510980906	0.8671345838795201	514.0	514.0	514.0	0	0	1	-29.999999999999996	29.999999999999996								
	4	115	2.2557568098443356e-5	0.01850604961138517	0.028144586335477947	500.0	1586.0	1586.0	1.0	0.0	1	-29.999999999999996	29.999999999999996								
	4	119	0.0013963696757714908	0.011869142017629425	0.24930097755370223	591.0	591.0	591.0	0	0	1	-29.999999999999996	29.999999999999996								
	5	120	0.002178746089665262	0.022183592399179806	0.48408099111304265	644.0	644.0	644.0	0	0	1	-29.999999999999996	29.999999999999996								
	5	129	0.002141681133060041	0.02608956255291654	0.3522128454866378	702.0	702.0	702.0	0	0	1	-29.999999999999996	29.999999999999996								
	5	131	1.0625174131368444e-5	0.01270093759863678	0.0022000392443254275	710.0	2310.0	2310.0	1.0249	0.0	1	-29.999999999999996	29.999999999999996								
	7	8	0.0003981749675520942	0.018813762738760377	0.0022004020913767883	672.0	1552.0	1552.0	0.9751	0.0	1	-29.999999999999996	29.999999999999996								
	7	9	0.0016941182072125291	0.01684152422226412	0.3025053649189666	637.0	637.0	637.0	0	0	1	-29.999999999999996	29.999999999999996								
	8	10	0.47005146343282944	1.0957127621735	0.04067987341427985	26.0	26.0	26.0	1.0	0.0	1	-29.999999999999996	29.999999999999996								
	8	12	0.010640985750723012	0.05762194216164827	0.0022317547178629855	159.0	159.0	159.0	0	0	1	-29.999999999999996	29.999999999999996								
	8	13	0.14245240368406092	0.5349322526362845	0.0022008971141153507	60.0	60.0	60.0	1.0	0.0	1	-29.999999999999996	29.999999999999996								
	8	14	0.05962786249064556	0.4986975511889164	0.0022025721337570756	74.0	74.0	74.0	1.0	0.0	1	-29.999999999999996	29.999999999999996								
	8	15	0.36289727446290154	1.2569377194082332	0.0021989782114287156	17.0	17.0	17.0	1.0	0.0	1	-29.999999999999996	29.999999999999996								
	8	132	0.028530411690345547	0.32605665457577837	0.011827457082434096	102.0	102.0	102.0	1.0	0.0	1	-29.999999999999996	29.999999999999996								
	9	75	0.0012867165548966786	0.014846726991761988	0.33366576233524786	684.0	684.0	684.0	0	0	1	-29.999999999999996	29.999999999999996								
	10	11	0.0050914934070670536	0.0369383287746212	0.06455062726113403	366.0	366.0	366.0	0	0	1	-29.999999999999996	29.999999999999996								
	10	13	0.11969559664315887	0.5730902877201258	0.002200528546286164	47.0	47.0	47.0	1.0	0.0	1	-29.999999999999996	29.999999999999996								
	10	15	0.14327437066905616	0.7904449052332537	0.07322492127581508	42.0	42.0	42.0	0	0	1	-29.999999999999996	29.999999999999996								
	10	60	0.34274827833172256	1.661786041279726	0.035848716436989926	24.0	24.0	24.0	1.0	0.0	1	-29.999999999999996	29.999999999999996								
	11	15	0.028949927704532176	0.1821343849551989	0.3755911084135838	162.0	162.0	162.0	0	0	1	-29.999999999999996	29.999999999999996								
	11	46	0.014092074853538788	0.12157461989970503	0.12701383938610067	238.0	238.0	238.0	1.0	0.0	1	-29.999999999999996	29.999999999999996								
	11	58	0.01682247010956249	0.10588297874244412	0.5008831982652893	271.0	271.0	271.0	0	0	1	-29.999999999999996	29.999999999999996								
	11	59	0.00702076482584272	0.04657436793768475	0.019067961344850188	350.0	350.0	350.0	0	0	1	-29.999999999999996	29.999999999999996								
	12	2	0.0007934614046982324	0.03739188437879477	0.00980991263479741	336.0	778.0	778.0	1.0252	0.0	1	-29.999999999999996	29.999999999999996								
	12	13	0.10361515893598414	0.313143477421918	0.0022904033322005296	89.0	89.0	89.0	1.0	0.0	1	-29.999999999999996	29.999999999999996								
	12	14	0.17006238860618955	0.6826896347606791	0.00220893788109004	45.0	45.0	45.0	1.0	0.0	1	-29.999999999999996	29.999999999999996								
	12	132	0.4025894511121971	1.4154947665965736	0.06558481839613158	18.0	18.0	18.0	1.0	0.0	1	-29.999999999999996	29.999999999999996								
	13	15	0.043500775115925115	0.3190682751751682	0.0021996920029369754	91.0	91.0	91.0	1.0	0.0	1	-29.999999999999996	29.999999999999996								
	13	62	0.010052343884490172	0.12526529970884	0.03042985465912032	240.0	240.0	240.0	1.0	0.0	1	-29.999999999999996	29.999999999999996								
	14	72	0.012187547267048569	0.09431111249680066	0.0022001857492838137	264.0	264.0	264.0	0	0	1	-29.999999999999996	29.999999999999996								
	14	113	0.006478483569089532	0.03928223191173565	0.0021989619612789242	235.0	235.0	235.0	0	0	1	-29.999999999999996	29.999999999999996								
	14	132	0.005684089671667072	0.03729560605990205	0.06257647012303705	244.0	244.0	244.0	0	0	1	-29.999999999999996	29.999999999999996								
	15	58	0.010525972361362275	0.06700017271589329	0.1271754124890496	344.0	344.0	344.0	0	0	1	-29.999999999999996	29.999999999999996								
	15	60	0.21796972780666013	1.8060157025544137	0.014110859707635441	18.0	18.0	18.0	1.0	0.0	1	-29.999999999999996	29.999999999999996								
	15	62	0.008340187178885707	0.05838166246945107	0.002199018165635757	359.0	359.0	359.0	0	0	1	-29.999999999999996	29.999999999999996								
	15	63	0.12958893819544404	1.1069054409453065	0.0021998960757818975	21.0	21.0	21.0	0	0	1	-29.999999999999996	29.999999999999996								
	16	17	0.6128959862658213	1.5971229561200413	0.007002807245754317	19.0	19.0	19.0	0	0	1	-29.999999999999996	29.999999999999996								
	16	18	0.0293616531746712	0.10578043712073854	0.002200239578242951	184.0	184.0	184.0	0	0	1	-29.999999999999996	29.999999999999996								
	16	27	0.1968732622149667	1.1095024999435508	0.0869691372592358	33.0	33.0	33.0	1.0	0.0	1	-29.999999999999996	29.999999999999996								
	16	126	0.09748921445469723	0.4750548145727933	0.09227535459420946	56.00000000000001	56.00000000000001	56.00000000000001	1.0	0.0	1	-29.999999999999996	29.999999999999996								
	16	127	0.09468223751389268	0.5214528916400595	0.002198730891169098	55.00000000000001	55.00000000000001	55.00000000000001	1.0	0.0	1	-29.999999999999996	29.999999999999996								
	17	18	0.02138786012487792	0.10172555352503747	0.1263607666572193	209.0	209.0	209.0	0	0	1	-29.999999999999996	29.999999999999996								
	17	19	0.24362512591689833	0.809773392422797	0.002199701422973823	37.0	37.0	37.0	0	0	1	-29.999999999999996	29.999999999999996								
	17	21	0.043994917427350656	0.24895930876816658	0.07940609555350611	109.00000000000001	109.00000000000001	109.00000000000001	0	0	1	-29.999999999999996	29.999999999999996								
	17	127	0.032201292693141925	0.2958829789191034	0.10930522840265579	111.00000000000001	111.00000000000001	111.00000000000001	1.0	0.0	1	-29.999999999999996	29.999999999999996								
	18	30	0.020958709903718925	0.11016301545485488	0.0021990517195844103	220.00000000000003	220.00000000000003	220.00000000000003	0	0	1	-29.999999999999996	29.999999999999996								
	18	32	0.022618486183132672	0.11793118185294267	0.2815660900003606	219.0	219.0	219.0	0	0	1	-29.999999999999996	29.999999999999996								
	18	37	0.0001372895705730594	0.045654618238854576	0.0021985735033431993	225.0	644.0	644.0	1.1193	0.0	1	-29.999999999999996	29.999999999999996								
	19	21	0.3425981863981567	1.6858955908726256	0.027614592543156572	16.0	16.0	16.0	0	0	1	-29.999999999999996	29.999999999999996								
	19	38	0.02457561315637069	0.1285337802709539	0.05614203346648939	219.0	219.0	219.0	0	0	1	-29.999999999999996	29.999999999999996								
	19	43	0.058026943802918306	0.24748919942787823	0.0021991305246079704	112.00000000000001	112.00000000000001	112.00000000000001	0	0	1	-29.999999999999996	29.999999999999996								
	19	127	0.10912427655935843	0.6921371110219217	0.002199786166252768	43.0	43.0	43.0	1.0	0.0	1	-29.999999999999996	29.999999999999996								
	20	53	0.0008577723910485306	0.11411472005711001	0.0022027071158489627	75.0	258.0	258.0	1.0	0.0	1	-29.999999999999996	29.999999999999996								
	20	157	0.011245912735268634	0.027766455818421666	0.1458392330117994	44.0	66.0	66.0	0	0	1	-29.999999999999996	29.999999999999996								
	21	22	0.03238200196744563	0.16909704483839913	0.04378029041923873	177.0	177.0	177.0	0	0	1	-29.999999999999996	29.999999999999996								
	21	127	0.003966107386320864	0.2422012805666567	0.0021989797412130065	46.0	46.0	46.0	1.0	0.0	1	-29.999999999999996	29.999999999999996								
	22	38	0.013886632671063118	0.053562733185511226	0.1019860640756877	190.0	190.0	190.0	0	0	1	-29.999999999999996	29.999999999999996								
	22	39	0.00015977193719134218	0.04925109281092995	0.07098180285551997	225.0	595.0	595.0	1.1081	0.0	1	-29.999999999999996	29.999999999999996								
	22	40	0.018499614889240467	0.0705544970213434	0.019531398805835983	189.0	189.0	189.0	0	0	1	-29.999999999999996	29.999999999999996								
	22	41	0.016395394057017825	0.08102414714630211	0.002198814575539611	213.0	213.0	213.0	0	0	1	-29.999999999999996	29.999999999999996								
	23	24	0.01748253068610807	0.051342374642354464	0.00219971113612286	167.0	167.0	167.0	0	0	1	-29.999999999999996	29.999999999999996								
	23	60	0.06693769692168808	0.3136966489750298	0.08607122766698885	93.0	93.0	93.0	1.0	0.0	1	-29.999999999999996	29.999999999999996								
	24	25	7.620057787137094e-5	0.03401307906680945	0.08653626759567119	225.0	863.0000000000001	863.0000000000001	1.0217	0.0	1	-29.999999999999996	29.999999999999996								
	24	28	0.02486706773160611	0.07240388228557616	0.0022006649132192842	166.0	166.0	166.0	0	0	1	-29.999999999999996	29.999999999999996								
	24	45	0.013827494995114327	0.07317477546173909	0.0021985823750522455	220.00000000000003	220.00000000000003	220.00000000000003	0	0	1	-29.999999999999996	29.999999999999996								
	25	26	0.006108836190383655	0.06035930441026568	0.8832811003753168	501.0	501.0	501.0	0	0	1	-29.999999999999996	29.999999999999996								
	25	27	0.004432341285844428	0.041301130118526264	0.6863000985581376	618.0	618.0	618.0	0	0	1	-29.999999999999996	29.999999999999996								
	26	74	0.006382797931731908	0.061497551813063364	0.8922509032612703	480.99999999999994	480.99999999999994	480.99999999999994	0	0	1	-29.999999999999996	29.999999999999996								
	26	75	0.002994797652380863	0.032144176532953435	0.5058014587485596	661.0	661.0	661.0	0	0	1	-29.999999999999996	29.999999999999996								
	26	76	4.429198287250257e-6	0.008200312527150625	0.09194299647076536	1250.0	3578.0	3578.0	1.04	0.0	1	-29.999999999999996	29.999999999999996								
	27	31	0.010364207690177311	0.13062612684009414	0.0021989604502817323	229.99999999999997	229.99999999999997	229.99999999999997	1.0	0.0	1	-29.999999999999996	29.999999999999996								
	27	62	0.023771892797355237	0.6002849113673341	0.002199008898002392	51.0	51.0	51.0	1.0	0.0	1	-29.999999999999996	29.999999999999996								
	27	65	0.21796543034556068	1.8060168690530918	0.0022018858530777215	107.0	107.0	107.0	0	0	1	-29.999999999999996	29.999999999999996								
	27	125	0.030818472680785212	0.6833318088574786	0.01773885914594292	18.0	18.0	18.0	0	0	1	-29.999999999999996	29.999999999999996								
	27	126	0.0022260845245912187	0.022766823533480217	0.002199197728812274	646.0	646.0	646.0	0	0	1	-29.999999999999996	29.999999999999996								
	27	127	0.08952587926590132	0.8531929381828872	0.015637280170542528	21.0	21.0	21.0	0	0	1	-29.999999999999996	29.999999999999996								
	28	29	0.024371499519281546	0.0979931975009552	0.016070888596521848	193.0	193.0	193.0	0	0	1	-29.999999999999996	29.999999999999996								
	29	30	0.03743318053020976	0.14775988616793512	0.002200797895261789	177.0	190.0	190.0	0	0	1	-29.999999999999996	29.999999999999996								
	29	31	0.02065028562882184	0.0835033038538383	0.06490407610561455	194.0	194.0	194.0	0	0	1	-29.999999999999996	29.999999999999996								
	30	32	0.024859290092992845	0.10033586108602091	0.05315394481722232	194.0	194.0	194.0	0	0	1	-29.999999999999996	29.999999999999996								
	32	33	0.011372189079370251	0.04469079950812949	0.0022098104298898776	191.0	191.0	191.0	0	0	1	-29.999999999999996	29.999999999999996								
	33	34	0.02810494129937022	0.11442720137399434	0.023049676149910263	180.0	195.0	195.0	0	0	1	-29.999999999999996	29.999999999999996								
	33	35	0.021590731087345046	0.1069543371024906	0.0021994752342229377	214.0	214.0	214.0	0	0	1	-29.999999999999996	29.999999999999996								
	33	36	0.010154332054650191	0.05335999751038705	0.0022003530282810025	220.00000000000003	220.00000000000003	220.00000000000003	0	0	1	-29.999999999999996	29.999999999999996								
	34	40	0.039948307209726065	0.15264820601618337	0.022072414710623538	188.0	188.0	188.0	0	0	1	-29.999999999999996	29.999999999999996								
	34	77	0.022664682376228814	0.08641448638960268	0.06739040247761013	189.0	189.0	189.0	0	0	1	-29.999999999999996	29.999999999999996								
	35	40	0.02742591608428947	0.13571255421509765	0.014489471871467268	179.0	213.0	213.0	0	0	1	-29.999999999999996	29.999999999999996								
	36	67	0.018177501052821458	0.095431184199867	0.010041952711230975	220.00000000000003	220.00000000000003	220.00000000000003	0	0	1	-29.999999999999996	29.999999999999996								
	37	39	0.0039502517740111435	0.03838907839175494	0.6956714823657384	630.0	630.0	630.0	0	0	1	-29.999999999999996	29.999999999999996								
	37	126	0.00397576005988212	0.037868775047072256	0.5389327013748907	624.0	624.0	624.0	0	0	1	-29.999999999999996	29.999999999999996								
	37	127	0.00400941930875809	0.0403949884803906	0.7615427846887697	641.0	641.0	641.0	0	0	1	-29.999999999999996	29.999999999999996								
	39	42	0.0019965822069623286	0.01856822814518639	0.41564348630505693	617.0	617.0	617.0	0	0	1	-29.999999999999996	29.999999999999996								
	40	81	0.0313122017798527	0.3600699639615388	0.002199914204629625	81.0	85.0	85.0	1.0	0.0	1	-29.999999999999996	29.999999999999996								
	40	82	0.003996438972975654	0.018983085388164414	0.20301522785827011	209.0	209.0	209.0	0	0	1	-29.999999999999996	29.999999999999996								
	41	81	0.05909847540893925	0.5940688127010983	0.02542780906129345	79.0	79.0	79.0	1.0	0.0	1	-29.999999999999996	29.999999999999996								
	41	83	0.005229459891330943	0.025745031624564207	0.08136491403381325	213.0	213.0	213.0	0	0	1	-29.999999999999996	29.999999999999996								
	41	84	0.005545407791193938	0.05642683160679214	0.006763528147910057	301.0	301.0	301.0	0	0	1	-29.999999999999996	29.999999999999996								
	42	109	0.001894382800893093	0.019542018275956616	0.341457649560821	648.0	648.0	648.0	0	0	1	-29.999999999999996	29.999999999999996								
	43	44	0.019160972335052866	0.07654203070920568	0.00219895292556045	193.0	193.0	193.0	0	0	1	-29.999999999999996	29.999999999999996								
	43	103	0.03191868601366568	0.16767092943662826	0.041269611340259596	170.0	170.0	170.0	0	0	1	-29.999999999999996	29.999999999999996								
	43	124	0.02890631037933402	0.1742247131538954	0.0839956686961652	164.0	164.0	164.0	1.0	0.0	1	-29.999999999999996	29.999999999999996								
	43	125	0.1296582655699076	0.582379560231239	0.06525972288755905	44.0	44.0	44.0	1.0	0.0	1	-29.999999999999996	29.999999999999996								
	44	102	0.013071013398092888	0.05027313161081361	0.08910182539336109	180.0	189.0	189.0	0	0	1	-29.999999999999996	29.999999999999996								
	44	103	0.012694417317561173	0.0509775472824272	0.16830495264061485	180.0	193.0	193.0	0	0	1	-29.999999999999996	29.999999999999996								
	45	54	0.010518479546933879	0.055514215201117066	0.08835881930075026	220.00000000000003	220.00000000000003	220.00000000000003	0	0	1	-29.999999999999996	29.999999999999996								
	46	47	0.031225077516180658	0.1388026839891312	0.03906067087059221	177.0	202.99999999999997	202.99999999999997	0	0	1	-29.999999999999996	29.999999999999996								
	47	48	0.02542505339448077	0.1128425162974768	0.11245153404553437	177.0	202.99999999999997	202.99999999999997	0	0	1	-29.999999999999996	29.999999999999996								
	47	49	0.003000381796998417	0.012001527281023591	0.11946628275682826	193.0	193.0	193.0	0	0	1	-29.999999999999996	29.999999999999996								
	48	50	0.03377905743737743	0.16688454972570807	0.2979197075586709	174.0	174.0	174.0	0	0	1	-29.999999999999996	29.999999999999996								
	48	51	0.040817285096610895	0.12633931913721064	0.03507253689133861	171.0	171.0	171.0	0	0	1	-29.999999999999996	29.999999999999996								
	48	52	0.0536317735517172	0.1668542165532477	0.05216489105374379	167.0	167.0	167.0	0	0	1	-29.999999999999996	29.999999999999996								
	49	87	0.01400024724242854	0.06800129698421599	0.004688818058958612	423.00000000000006	423.00000000000006	423.00000000000006	1.0	0.0	1	-29.999999999999996	29.999999999999996								
	50	51	0.03038963262574197	0.09116895281719757	0.03576499979269167	168.0	168.0	168.0	0	0	1	-29.999999999999996	29.999999999999996								
	50	123	0.3793889880116284	1.7348877758225338	0.11368808560474278	16.0	16.0	16.0	0	0	1	-29.999999999999996	29.999999999999996								
	50	125	0.12186852517380574	0.5497378175861639	0.038701477821667885	48.0	48.0	48.0	1.0	0.0	1	-29.999999999999996	29.999999999999996								
	51	141	0.032571806419612395	0.1008417784756002	0.08926987365809527	171.0	171.0	171.0	0	0	1	-29.999999999999996	29.999999999999996								
	52	79	0.06276659901060667	0.21419805591854682	0.19582847433335607	133.0	133.0	133.0	0	0	1	-29.999999999999996	29.999999999999996								
	52	106	0.023784719886431084	0.07382683269868713	0.0022000366192095095	171.0	171.0	171.0	0	0	1	-29.999999999999996	29.999999999999996								
	52	116	0.0060597547433116	0.049185199751215825	0.10315966192761698	270.0	270.0	270.0	0	0	1	-29.999999999999996	29.999999999999996								
	52	117	0.011706807593844877	0.049328763491573654	0.012928700788904861	198.0	198.0	198.0	0	0	1	-29.999999999999996	29.999999999999996								
	52	118	0.00017856566451652817	0.05206721270060901	0.009091160923086499	200.0	565.0	565.0	1.0429	0.0	1	-29.999999999999996	29.999999999999996								
	53	11	0.0005017784789698393	0.02007108730119941	0.0021995553497157665	375.0	1467.0	1467.0	1.0	0.0	1	-29.999999999999996	29.999999999999996								
	53	54	0.02719987835905657	0.19395906600729163	0.002199100247633889	149.0	149.0	149.0	0	0	1	-29.999999999999996	29.999999999999996								
	53	55	0.0005000600309210996	0.002600312157108712	0.0022050947316557806	219.0	219.0	219.0	0	0	1	-29.999999999999996	29.999999999999996								
	54	56	0.01803544768962181	0.09432306136581069	0.0022121255750425493	219.0	219.0	219.0	0	0	1	-29.999999999999996	29.999999999999996								
	54	57	0.02513869541100937	0.12438599494206683	0.07080279883877687	213.0	213.0	213.0	0	0	1	-29.999999999999996	29.999999999999996								
	55	57	0.04677588176866836	0.17849375703927958	0.14541562583308576	161.0	161.0	161.0	0	0	1	-29.999999999999996	29.999999999999996								
	55	149	0.015392827528912639	0.06750642779218816	0.0300386305195123	202.0	202.0	202.0	0	0	1	-29.999999999999996	29.999999999999996								
	55	162	0.004000276030943262	0.01890130090754327	0.013190298786163998	209.0	209.0	209.0	0	0	1	-29.999999999999996	29.999999999999996								
	56	67	0.0165012239661504	0.08677694380609345	0.23737074775196706	220.00000000000003	220.00000000000003	220.00000000000003	0	0	1	-29.999999999999996	29.999999999999996								
	57	80	0.027928616767261924	0.1064779794416925	0.14859725535052087	180.0	189.0	189.0	0	0	1	-29.999999999999996	29.999999999999996								
	58	61	0.013035635626324132	0.09977656238494816	0.20355721589661818	276.0	286.0	286.0	0	0	1	-29.999999999999996	29.999999999999996								
	59	61	0.010317940310567033	0.0687214265556396	0.16083070653169165	351.0	351.0	351.0	0	0	1	-29.999999999999996	29.999999999999996								
	60	61	0.002630758477161392	0.06362545022175436	0.0021986084123411876	100.0	449.0	449.0	1.0252	0.0	1	-29.999999999999996	29.999999999999996								
	60	61	0.0019335131263789893	0.03799355268763758	0.010802028677097267	200.0	746.0	746.0	1.0252	0.0	1	-29.999999999999996	29.999999999999996								
	60	62	0.4095150736546545	1.0745920591487785	0.002198760583822668	28.999999999999996	28.999999999999996	28.999999999999996	1.0	0.0	1	-29.999999999999996	29.999999999999996								
	60	65	0.1015788730386383	0.40437656240335135	0.0022458191492362497	69.0	69.0	69.0	1.0	0.0	1	-29.999999999999996	29.999999999999996								
	60	126	0.4675658077642624	1.7040267030536425	0.002199306076506761	16.0	16.0	16.0	1.0	0.0	1	-29.999999999999996	29.999999999999996								
	61	62	0.02814741995328902	0.21634883128416268	0.4271576044272309	128.0	128.0	128.0	0	0	1	-29.999999999999996	29.999999999999996								
	61	63	0.0043422908148574805	0.04261505102087969	0.002200107946703503	345.0	422.0	422.0	0	0	1	-29.999999999999996	29.999999999999996								
	62	63	0.01679477759131905	0.18092570295833146	0.016134012858300458	172.0	172.0	172.0	0	0	1	-29.999999999999996	29.999999999999996								
	62	65	0.0039514843276357795	0.07310259312059096	0.02860874662130818	396.0	396.0	396.0	1.0	0.0	1	-29.999999999999996	29.999999999999996								
	62	126	0.006659551171430326	0.3179021358533551	0.01066100799983082	99.0	99.0	99.0	1.0	0.0	1	-29.999999999999996	29.999999999999996								
	63	65	0.21799047381905606	1.806008785113092	0.002199729303129658	15.0	15.0	15.0	1.0	0.0	1	-29.999999999999996	29.999999999999996								
	64	65	0.0049460864183961	0.05648456956783626	0.9011897079130191	512.0	512.0	512.0	0	0	1	-29.999999999999996	29.999999999999996								
	64	66	0.003348945659910986	0.03866515893101881	0.7656788274207961	684.0	684.0	684.0	0	0	1	-29.999999999999996	29.999999999999996								
	65	126	0.0029354471211683456	0.14543329220703136	0.002199131741450543	191.0	191.0	191.0	0	0	1	-29.999999999999996	29.999999999999996								
	66	11	9.169389718989083e-6	0.011798804109832656	0.0021993040497440284	500.0	2486.0	2486.0	1.0	0.0	1	-29.999999999999996	29.999999999999996								
	67	68	0.01927589792490323	0.10117288561119428	0.002200442780744092	220.00000000000003	220.00000000000003	220.00000000000003	0	0	1	-29.999999999999996	29.999999999999996								
	68	69	0.006823419306557612	0.0354215533445926	0.0022035729757339663	218.00000000000003	218.00000000000003	218.00000000000003	0	0	1	-29.999999999999996	29.999999999999996								
	69	77	0.009702728599245404	0.03702875109991496	0.012151659167519565	189.0	189.0	189.0	0	0	1	-29.999999999999996	29.999999999999996								
	69	78	0.011367563629927517	0.04327650011649825	0.017270468771893806	180.0	188.0	188.0	0	0	1	-29.999999999999996	29.999999999999996								
	69	79	0.005187537030281563	0.04319603989620074	0.002203537784313604	273.0	273.0	273.0	0	0	1	-29.999999999999996	29.999999999999996								
	70	73	2.5538360112803874e-5	0.01969083096749851	0.002200905792100568	495.0	1489.0	1489.0	1.0398	0.0	1	-29.999999999999996	29.999999999999996								
	70	149	0.00020036325012311632	0.0018032692507155045	0.024560084868365226	284.0	284.0	284.0	0	0	1	-29.999999999999996	29.999999999999996								
	70	149	0.00020004500104666236	0.001800405009028679	0.006240558300903079	284.0	284.0	284.0	0	0	1	-29.999999999999996	29.999999999999996								
	71	85	0.031760997986445334	0.1573475070173004	0.08180636783559676	191.0	191.0	191.0	0	0	1	-29.999999999999996	29.999999999999996								
	71	150	0.020147706459624503	0.09971168260852463	0.08011070719983779	213.0	213.0	213.0	0	0	1	-29.999999999999996	29.999999999999996								
	72	113	0.0022140868230927945	0.013083240326765447	0.18197235009536183	231.99999999999997	231.99999999999997	231.99999999999997	0	0	1	-29.999999999999996	29.999999999999996								
	72	132	0.0027939850819620263	0.016763910254341572	0.10611770823959678	234.0	234.0	234.0	0	0	1	-29.999999999999996	29.999999999999996								
	72	152	0.03600512357562815	0.16833591204192896	0.0021999032374556684	160.0	160.0	160.0	0	0	1	-29.999999999999996	29.999999999999996								
	74	119	0.003093199493338442	0.030932046996852213	0.446540276869876	639.0	639.0	639.0	0	0	1	-29.999999999999996	29.999999999999996								
	75	128	0.0007965572242283381	0.008662560158882221	0.22872969779126537	665.0	665.0	665.0	0	0	1	-29.999999999999996	29.999999999999996								
	75	130	0.00041543604979085366	0.025133562934590778	0.0021996502316149543	578.0	1212.0	1212.0	1.0249	0.0	1	-29.999999999999996	29.999999999999996								
	78	79	0.005047357173334772	0.03325314594468485	0.07369658593688036	245.00000000000003	245.00000000000003	245.00000000000003	0	0	1	-29.999999999999996	29.999999999999996								
	78	80	0.02630384104650505	0.10025647171068525	0.1029623333748097	180.0	189.0	189.0	0	0	1	-29.999999999999996	29.999999999999996								
	79	74	2.1321883767134433e-5	0.01799203912784158	0.0022327570016707292	500.0	1630.0	1630.0	1.0248	0.0	1	-29.999999999999996	29.999999999999996								
	82	83	0.005263487752792722	0.024728460068547956	0.002211275699772423	208.0	208.0	208.0	0	0	1	-29.999999999999996	29.999999999999996								
	84	93	0.012148905066739083	0.08027905252648643	0.08879594341031435	245.00000000000003	245.00000000000003	245.00000000000003	0	0	1	-29.999999999999996	29.999999999999996								
	85	86	0.021110586032898903	0.10465297386077783	0.3539494933388001	214.0	214.0	214.0	0	0	1	-29.999999999999996	29.999999999999996								
	86	87	0.028054695481201434	0.11221918335643312	0.006432624841973867	254.99999999999997	254.99999999999997	254.99999999999997	1.0	0.0	1	-29.999999999999996	29.999999999999996								
	86	88	0.048177741219551956	0.24965032067977255	0.11115623740110096	127.0	127.0	127.0	1.0	0.0	1	-29.999999999999996	29.999999999999996								
	88	96	0.07278509718365837	0.24588843391188245	0.08946890102496405	48.0	112.99999999999999	112.99999999999999	1.0	0.0	1	-29.999999999999996	29.999999999999996								
	88	106	0.007963600548517564	0.04717666170667012	0.097134221392359	173.0	619.0	619.0	1.0	0.0	1	-29.999999999999996	29.999999999999996								
	89	86	0.00021357475098460077	0.056942929441927186	0.11067348532544061	90.0	515.0	515.0	1.0252	0.0	1	-29.999999999999996	29.999999999999996								
	89	90	0.06741748501729461	0.13092666693338298	0.06174966347249321	69.0	98.0	98.0	0	0	1	-29.999999999999996	29.999999999999996								
	90	96	0.18960946809041562	0.3705507884006826	0.1889170362862225	73.0	73.0	73.0	0	0	1	-29.999999999999996	29.999999999999996								
	91	92	0.01550847993785333	0.0814195191391247	0.14282564539296583	220.00000000000003	220.00000000000003	220.00000000000003	0	0	1	-29.999999999999996	29.999999999999996								
	91	93	0.014210664290498535	0.0889409583433861	0.0021997453768109578	239.0	239.0	239.0	0	0	1	-29.999999999999996	29.999999999999996								
	91	94	0.015045699301333879	0.0993011467104979	0.07672043607958652	245.00000000000003	245.00000000000003	245.00000000000003	0	0	1	-29.999999999999996	29.999999999999996								
	92	102	0.015015036108389172	0.06106115155494991	0.006628888831813794	194.0	194.0	194.0	0	0	1	-29.999999999999996	29.999999999999996								
	93	42	4.4623249210165683e-5	0.02602842341849446	0.010318356735915505	400.0	1129.0	1129.0	1.0248	0.0	1	-29.999999999999996	29.999999999999996								
	93	108	1.5616651679268397e-5	0.015397905311043422	0.0021997571282179823	600.0	1905.0	1905.0	1.0503	0.0	1	-29.999999999999996	29.999999999999996								
	94	103	0.02338176905035536	0.13730447894749026	0.037436532023079755	217.0	217.0	217.0	0	0	1	-29.999999999999996	29.999999999999996								
	94	107	0.060344471660080515	0.18616825600484835	0.18108736765848968	148.0	148.0	148.0	0	0	1	-29.999999999999996	29.999999999999996								
	94	109	8.087493122295682e-5	0.03504077571515632	0.09532341789112377	300.0	839.0	839.0	1.0248	0.0	1	-29.999999999999996	29.999999999999996								
	95	91	0.005355226728090772	0.045420256000623466	0.002198924811658168	250.0	637.0	637.0	1.02	0.0	1	-29.999999999999996	29.999999999999996								
	95	96	0.08691094436196888	0.2117851842098003	0.002199537987697154	109.00000000000001	109.00000000000001	109.00000000000001	0	0	1	-29.999999999999996	29.999999999999996								
	95	97	0.13111511090188316	0.28572731631267617	0.0021995920027364554	57.99999999999999	95.0	95.0	0	0	1	-29.999999999999996	29.999999999999996								
	95	98	0.006982445034596122	0.04228803163902876	0.0022059002221380105	168.0	168.0	168.0	0	0	1	-29.999999999999996	29.999999999999996								
	95	99	0.00030808103440251874	0.06839053191428116	0.004340024486077062	150.0	429.0	429.0	1.0296	0.0	1	-29.999999999999996	29.999999999999996								
	96	100	0.06906509371343025	0.16115175241605476	0.011805474725769744	69.0	107.0	107.0	0	0	1	-29.999999999999996	29.999999999999996								
	96	101	0.0007038683805745154	0.10337215420525647	0.002198620090129411	96.0	285.0	285.0	1.0296	0.0	1	-29.999999999999996	29.999999999999996								
	97	44	0.005487784277825894	0.1083568684983803	0.12457974125397002	84.0	291.0	291.0	1.0252	0.0	1	-29.999999999999996	29.999999999999996								
	98	93	0.0006273165891213004	0.022374291989804135	0.0021989876155485374	504.0	1371.0	1371.0	1.0252	0.0	1	-29.999999999999996	29.999999999999996								
	98	105	0.15649936059156758	0.3087802133725345	0.1138414728811004	69.0	90.0	90.0	0	0	1	-29.999999999999996	29.999999999999996								
	100	104	0.062378998501832476	0.145887002622941	0.0021990287124427433	69.0	107.0	107.0	0	0	1	-29.999999999999996	29.999999999999996								
	103	123	0.1527955722894547	0.6312256854768467	0.0021987981767303613	38.0	38.0	38.0	0	0	1	-29.999999999999996	29.999999999999996								
	103	124	0.0002053373901774908	0.017145786904042018	0.02493613911880851	1757.0	1757.0	1757.0	1.0	0.0	1	-29.999999999999996	29.999999999999996								
	103	125	0.028310187989891926	0.20009765426560858	0.07498786743945782	148.0	148.0	148.0	1.0	0.0	1	-29.999999999999996	29.999999999999996								
	104	34	0.007991284756179166	0.06363075548339546	0.0022020640242030208	106.0	457.0	457.0	1.0	0.0	1	-29.999999999999996	29.999999999999996								
	105	38	0.0008872812529297634	0.11606088238725644	0.12157329588436211	45.0	252.99999999999997	252.99999999999997	1.0252	0.0	1	-29.999999999999996	29.999999999999996								
	106	107	0.01932444433119483	0.060241350380571504	0.021215706603703515	171.0	171.0	171.0	0	0	1	-29.999999999999996	29.999999999999996								
	107	122	0.013143282942991543	0.06278540362032443	0.002200473435509898	210.0	210.0	210.0	0	0	1	-29.999999999999996	29.999999999999996								
	109	119	0.0059647087559591	0.05736039168263045	1.0010684607909592	505.99999999999994	505.99999999999994	505.99999999999994	0	0	1	-29.999999999999996	29.999999999999996								
	109	124	0.002009098519318317	0.022300984134594085	0.3131730632908017	671.0	671.0	671.0	0	0	1	-29.999999999999996	29.999999999999996								
	109	125	0.007254698384276629	0.06425535180483212	1.000062377734972	471.0	471.0	471.0	0	0	1	-29.999999999999996	29.999999999999996								
	110	111	0.02235399233122541	0.09621950550759018	0.2134644912703732	180.0	200.0	200.0	0	0	1	-29.999999999999996	29.999999999999996								
	110	112	2.253411364805265e-5	0.018496426200424104	0.0387887515470341	500.0	1586.0	1586.0	1.0	0.0	1	-29.999999999999996	29.999999999999996								
	110	114	0.0003880489382780509	0.07675481082969804	0.03017876026730565	150.0	382.0	382.0	1.0398	0.0	1	-29.999999999999996	29.999999999999996								
	110	134	0.0032220152933422844	0.025776103973766226	0.07585329406500438	268.0	268.0	268.0	0	0	1	-29.999999999999996	29.999999999999996								
	110	141	0.02094478741267805	0.06472947350006861	0.049359809030691315	171.0	171.0	171.0	0	0	1	-29.999999999999996	29.999999999999996								
	111	115	0.05232530314650793	0.21992619344836942	0.2644521305958072	129.0	129.0	129.0	0	0	1	-29.999999999999996	29.999999999999996								
	112	120	0.0004999253773850157	0.004399343301329988	0.08493266048415207	601.0	601.0	601.0	0	0	1	-29.999999999999996	29.999999999999996								
	112	121	2.372857161211951e-5	0.018980312765555226	0.0021997221701345595	720.0	1544.0	1544.0	1.0499	0.0	1	-29.999999999999996	29.999999999999996								
	113	132	0.05326354998621142	0.3377995885011273	0.2240121646144976	100.0	100.0	100.0	0	0	1	-29.999999999999996	29.999999999999996								
	113	134	0.0008025570485480683	0.007223013447592896	0.03743142362155826	284.0	284.0	284.0	0	0	1	-29.999999999999996	29.999999999999996								
	115	117	0.001916263064410737	0.015531820007850203	0.042048439275072534	270.0	270.0	270.0	0	0	1	-29.999999999999996	29.999999999999996								
	116	117	0.0048952718606044	0.039876071410175525	0.04148951864380232	271.0	271.0	271.0	0	0	1	-29.999999999999996	29.999999999999996								
	116	119	5.334277339276631e-6	0.008999235681885032	0.005462577171774175	1000.0	3260.0	3260.0	1.0248	0.0	1	-29.999999999999996	29.999999999999996								
	116	147	0.0034848386689103296	0.028476114608339074	0.04005486894894552	271.0	271.0	271.0	0	0	1	-29.999999999999996	29.999999999999996								
	117	147	0.0022057114155843945	0.01754543130310306	0.0021991069387204327	268.0	268.0	268.0	0	0	1	-29.999999999999996	29.999999999999996								
	120	14	0.0002818658000504529	0.017663565530793384	0.04979947829453945	500.0	1561.0	1561.0	0.9751	0.0	1	-29.999999999999996	29.999999999999996								
	120	128	0.00039987001598951313	0.005098342710110564	0.0022023235260999682	717.0	717.0	717.0	0	0	1	-29.999999999999996	29.999999999999996								
	120	129	0.00029948072988215176	0.0037934225782870284	0.20456344432844242	715.0	715.0	715.0	0	0	1	-29.999999999999996	29.999999999999996								
	122	123	0.01740163923301762	0.08303056078275275	0.0021988180559056316	210.0	210.0	210.0	0	0	1	-29.999999999999996	29.999999999999996								
	123	125	0.04251215743086298	0.2455760550128353	0.03117068967323902	119.0	119.0	119.0	1.0	0.0	1	-29.999999999999996	29.999999999999996								
	124	125	0.011525683449382372	0.16166240023524012	0.002199550000775661	185.0	185.0	185.0	0	0	1	-29.999999999999996	29.999999999999996								
	124	126	0.059689648386812566	0.8554155408142669	0.05758417079983347	36.0	36.0	36.0	0	0	1	-29.999999999999996	29.999999999999996								
	125	126	0.02075680135931365	0.5609748640241564	0.0029430600390588954	50.0	50.0	50.0	0	0	1	-29.999999999999996	29.999999999999996								
	126	127	0.10410177491299769	0.83640310691427	0.002198955198964301	42.0	42.0	42.0	0	0	1	-29.999999999999996	29.999999999999996								
	128	72	0.00040271060513739546	0.018121958254719545	0.14556677861786607	500.0	1630.0	1630.0	1.0	0.0	1	-29.999999999999996	29.999999999999996								
	129	132	0.0004008786363387414	0.01984347483844075	0.002198765576686777	500.0	1482.0	1482.0	1.0	0.0	1	-29.999999999999996	29.999999999999996								
	133	134	0.00011083676620160393	0.04102118896503128	0.010063662624390768	160.0	716.0	716.0	1.0249	0.0	1	-29.999999999999996	29.999999999999996								
	133	135	0.010944514886634681	0.026005774784983077	0.002202493518179902	44.0	65.0	65.0	0	0	1	-29.999999999999996	29.999999999999996								
	133	136	0.038840927982401	0.09859572643725888	0.002198907385828141	39.0	67.0	67.0	0	0	1	-29.999999999999996	29.999999999999996								
	133	137	0.013308865009295468	0.05005724437977471	0.002198705453780432	60.0	81.0	81.0	0	0	1	-29.999999999999996	29.999999999999996								
	135	138	0.046368411258892385	0.11761219253942003	0.002199194290382591	39.0	67.0	67.0	0	0	1	-29.999999999999996	29.999999999999996								
	136	139	0.026178202097936736	0.06544571088387428	0.0022158941493010025	39.0	66.0	66.0	0	0	1	-29.999999999999996	29.999999999999996								
	137	140	0.004094435443227512	0.015578827460407214	0.0021998136092673255	60.0	81.0	81.0	0	0	1	-29.999999999999996	29.999999999999996								
	138	110	0.00011082858496000854	0.041019675002697584	0.07673670619926137	160.0	716.0	716.0	1.0	0.0	1	-29.999999999999996	29.999999999999996								
	138	139	0.02595331394445371	0.06488345852019137	0.4119476129622352	39.0	66.0	66.0	0	0	1	-29.999999999999996	29.999999999999996								
	138	140	0.02484374124963891	0.09313896276835121	0.014189703450084561	60.0	80.0	80.0	0	0	1	-29.999999999999996	29.999999999999996								
	138	145	0.09246476141426888	0.23421710546541735	0.002200595518952966	39.0	67.0	67.0	0	0	1	-29.999999999999996	29.999999999999996								
	142	51	0.001964662713793123	0.17269660732894068	0.0021988314584969327	83.0	170.0	170.0	1.07	0.0	1	-29.999999999999996	29.999999999999996								
	142	143	0.1570108002098548	0.3889546293428459	0.0022003193417764366	44.0	66.0	66.0	0	0	1	-29.999999999999996	29.999999999999996								
	142	146	0.16910547779684654	0.40353330146509125	0.08918593722692056	44.0	65.0	65.0	0	0	1	-29.999999999999996	29.999999999999996								
	143	144	0.09293660018289614	0.23279289236225997	0.10706638596214087	44.0	66.0	66.0	0	0	1	-29.999999999999996	29.999999999999996								
	144	141	0.0004402894837640191	0.08175809525317862	0.1212729288170718	80.0	358.0	358.0	1.0249	0.0	1	-29.999999999999996	29.999999999999996								
	144	145	0.08910995672956652	0.22127308538722457	0.031790934138982575	39.0	66.0	66.0	0	0	1	-29.999999999999996	29.999999999999996								
	144	146	0.06787189428257702	0.2900532193202496	0.002200265817446715	60.0	86.0	86.0	0	0	1	-29.999999999999996	29.999999999999996								
	148	116	0.00011069647940901291	0.0409952205567888	0.00220005547870962	160.0	716.0	716.0	1.0	0.0	1	-29.999999999999996	29.999999999999996								
	149	26	9.755807945667787e-5	0.03848558849255019	0.13397193766369883	300.0	760.0	760.0	1.0	0.0	1	-29.999999999999996	29.999999999999996								
	149	26	9.769490112254647e-5	0.03851256618402983	0.0021998434970034726	300.0	760.0	760.0	1.0	0.0	1	-29.999999999999996	29.999999999999996								
	149	150	0.001002032237377259	0.008517274118319302	0.0021996703230960776	276.0	276.0	276.0	0	0	1	-29.999999999999996	29.999999999999996								
	149	151	0.003932502144577309	0.026418324492149863	0.03568135497032035	247.00000000000003	247.00000000000003	247.00000000000003	0	0	1	-29.999999999999996	29.999999999999996								
	149	152	0.02552675882013168	0.11784694412730744	0.05953459422337949	206.99999999999997	206.99999999999997	206.99999999999997	0	0	1	-29.999999999999996	29.999999999999996								
	151	161	0.0021009951112904075	0.013806537735486908	0.002199155922086682	244.0	244.0	244.0	0	0	1	-29.999999999999996	29.999999999999996								
	153	70	0.0005593556153910914	0.09215181785365924	0.17936530924929622	93.0	321.0	321.0	1.0	0.0	1	-29.999999999999996	29.999999999999996								
	153	70	0.0005520490759318806	0.09154799849740658	0.042887655535605376	93.0	321.0	321.0	1.0	0.0	1	-29.999999999999996	29.999999999999996								
	153	154	0.06664351720138997	0.26666293571482896	0.0022015753193228354	50.0	83.0	83.0	0	0	1	-29.999999999999996	29.999999999999996								
	153	155	0.04517997409769556	0.19500786176389126	0.0021988976991191836	66.0	86.0	86.0	0	0	1	-29.999999999999996	29.999999999999996								
	154	156	0.015563701762803077	0.03805576101468937	0.0021991382283671865	50.0	66.0	66.0	0	0	1	-29.999999999999996	29.999999999999996								
	154	160	0.010172307834207387	0.042783528493521725	0.4183950420607649	50.0	85.0	85.0	0	0	1	-29.999999999999996	29.999999999999996								
	155	156	0.01744219142476398	0.08146292813320782	0.0021992142002929694	66.0	89.0	89.0	0	0	1	-29.999999999999996	29.999999999999996								
	156	157	0.05326532086307918	0.12793720476557852	0.048098397401344015	33.0	65.0	65.0	0	0	1	-29.999999999999996	29.999999999999996								
	157	55	0.0004506604141058175	0.08271536034552442	0.0021991665752420825	150.0	355.0	355.0	1.0	0.0	1	-29.999999999999996	29.999999999999996								
	157	158	0.05009858827123535	0.14384137344303108	0.0022012987563246465	50.0	71.0	71.0	0	0	1	-29.999999999999996	29.999999999999996								
	158	159	0.033890902315628704	0.06638217943399807	0.0021990536471788924	50.0	59.0	59.0	0	0	1	-29.999999999999996	29.999999999999996								
	159	160	0.0190382250064052	0.08126315312903815	0.033292533094430775	50.0	86.0	86.0	0	0	1	-29.999999999999996	29.999999999999996								
	161	162	0.0022047306322845635	0.010322147650120945	0.002200128845670353	208.0	208.0	208.0	0	0	1	-29.999999999999996	29.999999999999996								
];

%%-----  OPF Data  -----%%
%% cost data
%    1    startup    shutdown    n    x1    y1    ...    xn    yn
%    2    startup    shutdown    n    c(n-1)    ...    c0
mpc.gencost = [
	2	0.0	0.0	2	23.532556	0.0
	2	0.0	0.0	2	30.409326	0.0
	2	0.0	0.0	2	19.040386	0.0
	2	0.0	0.0	2	19.686835	0.0
	2	0.0	0.0	2	38.489977	0.0
	2	0.0	0.0	2	6.111723	0.0
	2	0.0	0.0	2	22.934184000000002	0.0
	2	0.0	0.0	2	29.747826	0.0
	2	0.0	0.0	2	20.377006	0.0
	2	0.0	0.0	2	7.373082000000001	0.0
	2	0.0	0.0	2	15.234482	0.0
	2	0.0	0.0	2	11.354352000000002	0.0
];

